Version 4
SHEET 1 4728 1476
WIRE 1712 -256 1664 -256
WIRE -400 -240 -400 -288
WIRE -400 -240 -592 -240
WIRE 1392 -240 1392 -320
WIRE 1664 -224 1664 -256
WIRE 1664 -224 1616 -224
WIRE 1712 -224 1664 -224
WIRE -400 -192 -400 -240
WIRE 2304 -176 2304 -272
WIRE 3392 -176 3392 -224
WIRE 1712 -160 1616 -160
WIRE 1872 -160 1776 -160
WIRE 3520 -160 3424 -160
WIRE 2800 -144 2624 -144
WIRE 3040 -144 2864 -144
WIRE 3360 -144 3120 -144
WIRE 3520 -128 3424 -128
WIRE 1392 -96 1392 -160
WIRE 1616 -96 1616 -160
WIRE -592 -80 -592 -240
WIRE -528 -80 -592 -80
WIRE 256 -80 -272 -80
WIRE 400 -80 256 -80
WIRE 608 -80 480 -80
WIRE 704 -80 608 -80
WIRE 912 -80 784 -80
WIRE 1072 -80 992 -80
WIRE 3392 -64 3392 -112
WIRE 2304 -32 2304 -96
WIRE 2624 0 2624 -144
WIRE 608 48 608 -80
WIRE 608 48 -96 48
WIRE 1072 48 1072 -80
WIRE 1536 64 1392 64
WIRE 1664 64 1536 64
WIRE 1872 64 1744 64
WIRE 2304 64 2304 -32
WIRE 3392 128 3392 80
WIRE 3520 144 3424 144
WIRE 2800 160 2624 160
WIRE 3040 160 2864 160
WIRE 3360 160 3120 160
WIRE 1536 176 1536 64
WIRE 3520 176 3424 176
WIRE -400 224 -400 32
WIRE -400 224 -592 224
WIRE -288 224 -400 224
WIRE 1072 224 -208 224
WIRE 2304 224 2304 144
WIRE 3392 240 3392 192
WIRE 160 304 -16 304
WIRE 672 304 512 304
WIRE 2624 304 2624 160
WIRE 2304 320 2304 224
WIRE 1536 352 1536 256
WIRE 608 384 608 352
WIRE 96 400 96 352
WIRE 512 400 512 304
WIRE 576 400 512 400
WIRE -16 416 -16 304
WIRE 64 416 -16 416
WIRE 672 416 672 304
WIRE 672 416 640 416
WIRE 752 416 672 416
WIRE 3392 416 3392 368
WIRE 160 432 160 304
WIRE 160 432 128 432
WIRE 256 432 256 -80
WIRE 576 432 256 432
WIRE 3520 432 3424 432
WIRE -96 448 -96 48
WIRE 64 448 -96 448
WIRE 2800 448 2624 448
WIRE 3040 448 2864 448
WIRE 3360 448 3120 448
WIRE 3520 464 3424 464
WIRE 96 480 96 464
WIRE 608 480 608 448
WIRE 2304 480 2304 400
WIRE 3392 528 3392 480
WIRE 2304 544 2304 480
WIRE -592 592 -592 224
WIRE -272 592 -592 592
WIRE 2624 592 2624 448
WIRE 1536 624 1392 624
WIRE 1664 624 1536 624
WIRE 1872 624 1744 624
WIRE 2304 688 2304 624
WIRE 3376 688 3376 640
WIRE 3504 704 3408 704
WIRE 2784 720 2608 720
WIRE 3024 720 2848 720
WIRE 3344 720 3104 720
WIRE 1536 736 1536 624
WIRE 3504 736 3408 736
WIRE 2304 752 2304 688
WIRE -400 768 -400 752
WIRE 960 768 960 752
WIRE -432 784 -480 784
WIRE 928 784 448 784
WIRE -272 800 -272 592
WIRE -272 800 -368 800
WIRE 160 800 160 432
WIRE 288 800 160 800
WIRE 1072 800 1072 224
WIRE 1072 800 992 800
WIRE 3376 800 3376 752
WIRE -432 816 -480 816
WIRE 512 816 448 816
WIRE 928 816 880 816
WIRE 288 832 224 832
WIRE -400 848 -400 832
WIRE 512 848 448 848
WIRE 960 848 960 832
WIRE 224 864 224 832
WIRE 288 864 224 864
WIRE 2608 864 2608 720
WIRE 752 880 752 416
WIRE 752 880 448 880
WIRE 224 912 224 864
WIRE 512 912 512 848
WIRE 1536 912 1536 816
WIRE 2304 928 2304 832
FLAG 1392 -96 0
FLAG 1392 -320 Val
FLAG 1616 -96 0
FLAG -400 -288 Val
FLAG 1536 352 0
FLAG 1872 64 Vref
FLAG 1392 64 VTensiune
FLAG 1536 912 0
FLAG 1872 624 Vref
FLAG 1392 624 VCurent
FLAG -400 752 Val
FLAG -400 848 0
FLAG -480 784 Vbat
FLAG 1616 -224 Vref
FLAG 960 752 Val
FLAG 960 848 0
FLAG 608 352 Val
FLAG 96 352 Val
FLAG 96 480 0
FLAG 608 480 0
FLAG 512 816 Val
FLAG 512 912 0
FLAG 608 -80 Vbat
FLAG 2304 928 0
FLAG 2304 -272 Val
FLAG 1072 48 0
FLAG 224 912 0
FLAG 1872 -160 Val
FLAG 880 816 VTensiune
FLAG -480 816 VCurent
FLAG 2304 688 Ref_CRITIC
FLAG 2304 480 Ref_JOS
FLAG 2304 224 Ref_MEDIU
FLAG 2304 -32 Ref_FULL
FLAG 2608 864 0
FLAG 3504 736 Ref_CRITIC
FLAG 3504 704 Vbat
FLAG 3376 800 Val
FLAG 3376 640 0
FLAG 2624 592 0
FLAG 3520 464 Ref_JOS
FLAG 3520 432 Vbat
FLAG 3392 528 Val
FLAG 3392 368 0
FLAG 2624 304 0
FLAG 3520 176 Ref_MEDIU
FLAG 3520 144 Vbat
FLAG 3392 240 Val
FLAG 3392 80 0
FLAG 2624 0 0
FLAG 3520 -128 Ref_FULL
FLAG 3520 -160 Vbat
FLAG 3392 -64 Val
FLAG 3392 -224 0
DATAFLAG 1616 -112 ""
SYMBOL PowerProducts\\LT3080 -400 -80 R0
SYMATTR InstName U1
SYMBOL voltage 1392 -256 R0
WINDOW 123 0 0 Left 0
WINDOW 39 0 0 Left 0
SYMATTR InstName V1
SYMATTR Value 10
SYMBOL res 384 -64 R270
WINDOW 0 32 56 VTop 2
WINDOW 3 0 56 VBottom 2
SYMATTR InstName Rshunt
SYMATTR Value 1
SYMBOL res 1760 48 R90
WINDOW 0 0 56 VBottom 2
WINDOW 3 32 56 VTop 2
SYMATTR InstName R1div1
SYMATTR Value 2k
SYMBOL res 1552 272 R180
WINDOW 0 36 76 Left 2
WINDOW 3 36 40 Left 2
SYMATTR InstName R2div1
SYMATTR Value 8.2k
SYMBOL res 1760 608 R90
WINDOW 0 0 56 VBottom 2
WINDOW 3 32 56 VTop 2
SYMATTR InstName R1div2
SYMATTR Value 820
SYMBOL res 1552 832 R180
WINDOW 0 36 76 Left 2
WINDOW 3 36 40 Left 2
SYMATTR InstName R2div2
SYMATTR Value 4.3k
SYMBOL AD584 1744 -208 R0
SYMATTR InstName U4
SYMBOL LM741 960 736 R0
SYMATTR InstName U3
SYMBOL OpAmps\\UniversalOpAmp 96 432 R0
SYMATTR InstName U7
SYMBOL OpAmps\\UniversalOpAmp 608 416 R0
SYMATTR InstName U8
SYMBOL AD8210 368 832 R0
SYMATTR InstName U5
SYMBOL LM339 -400 736 R0
SYMATTR InstName U2
SYMBOL voltage 896 -80 R270
WINDOW 123 0 0 Left 0
WINDOW 39 0 0 Left 0
WINDOW 3 78 -245 VRight 2
SYMATTR InstName V2
SYMATTR Value PULSE(0V 4.199 10m 25000m 100000 30000m 30000m 1)
SYMBOL res 688 -64 R270
WINDOW 0 32 56 VTop 2
WINDOW 3 0 56 VBottom 2
SYMATTR InstName R_bat
SYMATTR Value 3
SYMBOL res 2288 736 R0
SYMATTR InstName R1div3
SYMATTR Value 3.3k
SYMBOL res 2288 528 R0
SYMATTR InstName R2div3
SYMATTR Value 560
SYMBOL res 2288 304 R0
SYMATTR InstName R3div3
SYMATTR Value 470
SYMBOL res 2288 48 R0
SYMATTR InstName R4div3
SYMATTR Value 430
SYMBOL res -192 208 R90
WINDOW 0 0 56 VBottom 2
WINDOW 3 32 56 VTop 2
SYMATTR InstName R_set
SYMATTR Value 1k
SYMBOL res 2288 -192 R0
SYMATTR InstName R5div3
SYMATTR Value 6.8k
SYMBOL LM324 3376 784 R180
SYMATTR InstName U6
SYMBOL res 3120 704 R90
WINDOW 0 0 56 VBottom 2
WINDOW 3 32 56 VTop 2
SYMATTR InstName R1
SYMATTR Value 470
SYMBOL LED 2848 704 R90
WINDOW 0 0 32 VBottom 2
WINDOW 3 72 32 VTop 2
SYMATTR InstName Led_Rosu
SYMATTR Value QTLP690C
SYMBOL LM324 3392 512 R180
SYMATTR InstName U9
SYMBOL res 3136 432 R90
WINDOW 0 0 56 VBottom 2
WINDOW 3 32 56 VTop 2
SYMATTR InstName R2
SYMATTR Value 470
SYMBOL LED 2864 432 R90
WINDOW 0 0 32 VBottom 2
WINDOW 3 72 32 VTop 2
SYMATTR InstName Led_Galben
SYMATTR Value QTLP690C
SYMBOL LM324 3392 224 R180
SYMATTR InstName U10
SYMBOL res 3136 144 R90
WINDOW 0 0 56 VBottom 2
WINDOW 3 32 56 VTop 2
SYMATTR InstName R3
SYMATTR Value 470
SYMBOL LED 2864 144 R90
WINDOW 0 0 32 VBottom 2
WINDOW 3 72 32 VTop 2
SYMATTR InstName Led_Verde
SYMATTR Value QTLP690C
SYMBOL LM324 3392 -80 R180
SYMATTR InstName U11
SYMBOL res 3136 -160 R90
WINDOW 0 0 56 VBottom 2
WINDOW 3 32 56 VTop 2
SYMATTR InstName R4
SYMATTR Value 470
SYMBOL LED 2864 -160 R90
WINDOW 0 0 32 VBottom 2
WINDOW 3 72 32 VTop 2
SYMATTR InstName Led_Albastru
SYMATTR Value QTLP690C
TEXT 1496 -512 Left 2 !.tran 0 35 1m
TEXT 1496 -464 Left 2 !.ic V(v_bat)=2.9
